<?xml version="1.0" encoding="UTF-8"?>
<!-- generated on 2020-05-18 08:56:17.129315 by randomTrips.py v1_6_0+0003-190709904e
  options: -n grid-16-50.net.xml -e 1000 -l
-->
<routes xmlns:xsi="http://www.w3.org/2001/XMLSchema-instance" xsi:noNamespaceSchemaLocation="http://sumo.dlr.de/xsd/routes_file.xsd">
	<vTypeDistribution id="typedist1">
		<vType id="uninfected" color="1,1,0" probability="0.9"/>
		<vType id="exploited" color="1,0,0" probability="0.1"/>
	</vTypeDistribution>
    <trip type="typedist1" id="0" depart="0.00" from="B4A4" to="A4B4"/>
    <trip type="typedist1" id="1" depart="1.00" from="A2A1" to="D0E0"/>
    <trip type="typedist1" id="2" depart="2.00" from="D3D2" to="D0E0"/>
    <trip type="typedist1" id="3" depart="3.00" from="B4C4" to="D3C3"/>
    <trip type="typedist1" id="4" depart="4.00" from="D4D3" to="A1B1"/>
    <trip type="typedist1" id="5" depart="5.00" from="A3A4" to="C1D1"/>
    <trip type="typedist1" id="6" depart="6.00" from="D2E2" to="D0E0"/>
    <trip type="typedist1" id="7" depart="7.00" from="E2E1" to="E1E2"/>
    <trip type="typedist1" id="8" depart="8.00" from="E1E2" to="C4B4"/>
    <trip type="typedist1" id="9" depart="9.00" from="B1B0" to="D3C3"/>
    <trip type="typedist1" id="10" depart="10.00" from="D4C4" to="D3C3"/>
    <trip type="typedist1" id="11" depart="11.00" from="B3B4" to="C4C3"/>
    <trip type="typedist1" id="12" depart="12.00" from="A3B3" to="E2D2"/>
    <trip type="typedist1" id="13" depart="13.00" from="C2C3" to="A1B1"/>
    <trip type="typedist1" id="14" depart="14.00" from="E1D1" to="B3C3"/>
    <trip type="typedist1" id="15" depart="15.00" from="E4E3" to="D0E0"/>
    <trip type="typedist1" id="16" depart="16.00" from="B2B1" to="A2A1"/>
    <trip type="typedist1" id="17" depart="17.00" from="A2A1" to="C0D0"/>
    <trip type="typedist1" id="18" depart="18.00" from="A0B0" to="C4B4"/>
    <trip type="typedist1" id="19" depart="19.00" from="B0B1" to="B3C3"/>
    <trip type="typedist1" id="20" depart="20.00" from="C0B0" to="A1B1"/>
    <trip type="typedist1" id="21" depart="21.00" from="E1D1" to="B2B1"/>
    <trip type="typedist1" id="22" depart="22.00" from="B0C0" to="E2E3"/>
    <trip type="typedist1" id="23" depart="23.00" from="C3C2" to="C2B2"/>
    <trip type="typedist1" id="24" depart="24.00" from="C4C3" to="C1D1"/>
    <trip type="typedist1" id="25" depart="25.00" from="B1C1" to="D0E0"/>
    <trip type="typedist1" id="26" depart="26.00" from="E1E0" to="E1E2"/>
    <trip type="typedist1" id="27" depart="27.00" from="E0E1" to="C0D0"/>
    <trip type="typedist1" id="28" depart="28.00" from="C3B3" to="D4C4"/>
    <trip type="typedist1" id="29" depart="29.00" from="C1D1" to="B2B1"/>
    <trip type="typedist1" id="30" depart="30.00" from="B1B2" to="D4E4"/>
    <trip type="typedist1" id="31" depart="31.00" from="B0C0" to="E3D3"/>
    <trip type="typedist1" id="32" depart="32.00" from="B1B0" to="A1A0"/>
    <trip type="typedist1" id="33" depart="33.00" from="B0B1" to="C0C1"/>
    <trip type="typedist1" id="34" depart="34.00" from="C2D2" to="E4D4"/>
    <trip type="typedist1" id="35" depart="35.00" from="E4E3" to="C3B3"/>
    <trip type="typedist1" id="36" depart="36.00" from="D3D2" to="C3D3"/>
    <trip type="typedist1" id="37" depart="37.00" from="D4D3" to="C2C3"/>
    <trip type="typedist1" id="38" depart="38.00" from="D4C4" to="B3B4"/>
    <trip type="typedist1" id="39" depart="39.00" from="C3C4" to="A0A1"/>
    <trip type="typedist1" id="40" depart="40.00" from="E0E1" to="A4B4"/>
    <trip type="typedist1" id="41" depart="41.00" from="D2E2" to="B3C3"/>
    <trip type="typedist1" id="42" depart="42.00" from="D0E0" to="C3B3"/>
    <trip type="typedist1" id="43" depart="43.00" from="B3C3" to="C4D4"/>
    <trip type="typedist1" id="44" depart="44.00" from="A3A2" to="C3C2"/>
    <trip type="typedist1" id="45" depart="45.00" from="E3D3" to="D3D4"/>
    <trip type="typedist1" id="46" depart="46.00" from="B4A4" to="C3B3"/>
    <trip type="typedist1" id="47" depart="47.00" from="B3B4" to="E3D3"/>
    <trip type="typedist1" id="48" depart="48.00" from="B4B3" to="E0E1"/>
    <trip type="typedist1" id="49" depart="49.00" from="C4B4" to="D0D1"/>
    <trip type="typedist1" id="50" depart="50.00" from="B2B1" to="C3D3"/>
    <trip type="typedist1" id="51" depart="51.00" from="D3D4" to="B2C2"/>
    <trip type="typedist1" id="52" depart="52.00" from="E1E2" to="E1E0"/>
    <trip type="typedist1" id="53" depart="53.00" from="C0C1" to="D3D4"/>
    <trip type="typedist1" id="54" depart="54.00" from="E3E2" to="B1A1"/>
    <trip type="typedist1" id="55" depart="55.00" from="B0B1" to="E2D2"/>
    <trip type="typedist1" id="56" depart="56.00" from="E3E4" to="B2B1"/>
    <trip type="typedist1" id="57" depart="57.00" from="A2A1" to="B1C1"/>
    <trip type="typedist1" id="58" depart="58.00" from="E3D3" to="B2B3"/>
    <trip type="typedist1" id="59" depart="59.00" from="C3B3" to="A3A4"/>
    <trip type="typedist1" id="60" depart="60.00" from="A3A4" to="C3D3"/>
    <trip type="typedist1" id="61" depart="61.00" from="A1B1" to="D2C2"/>
    <trip type="typedist1" id="62" depart="62.00" from="C4C3" to="E4D4"/>
    <trip type="typedist1" id="63" depart="63.00" from="C1C2" to="D3D2"/>
    <trip type="typedist1" id="64" depart="64.00" from="C2B2" to="B0C0"/>
    <trip type="typedist1" id="65" depart="65.00" from="B2B1" to="B2A2"/>
    <trip type="typedist1" id="66" depart="66.00" from="A4B4" to="D1D2"/>
    <trip type="typedist1" id="67" depart="67.00" from="E3D3" to="D1D0"/>
    <trip type="typedist1" id="68" depart="68.00" from="A3A4" to="C3D3"/>
    <trip type="typedist1" id="69" depart="69.00" from="D3C3" to="C0B0"/>
    <trip type="typedist1" id="70" depart="70.00" from="B4C4" to="B4B3"/>
    <trip type="typedist1" id="71" depart="71.00" from="B4B3" to="A1A2"/>
    <trip type="typedist1" id="72" depart="72.00" from="E2D2" to="C4D4"/>
    <trip type="typedist1" id="73" depart="73.00" from="B1C1" to="D2D3"/>
    <trip type="typedist1" id="74" depart="74.00" from="B0C0" to="D1D2"/>
    <trip type="typedist1" id="75" depart="75.00" from="A3B3" to="C3C4"/>
    <trip type="typedist1" id="76" depart="76.00" from="B4A4" to="B2B3"/>
    <trip type="typedist1" id="77" depart="77.00" from="D4C4" to="E4E3"/>
    <trip type="typedist1" id="78" depart="78.00" from="A1A2" to="C0C1"/>
    <trip type="typedist1" id="79" depart="79.00" from="E2E3" to="D2D1"/>
    <trip type="typedist1" id="80" depart="80.00" from="C2C1" to="B0A0"/>
    <trip type="typedist1" id="81" depart="81.00" from="D3E3" to="B4A4"/>
    <trip type="typedist1" id="82" depart="82.00" from="E4E3" to="B2B1"/>
    <trip type="typedist1" id="83" depart="83.00" from="B4A4" to="B4A4"/>
    <trip type="typedist1" id="84" depart="84.00" from="E1E0" to="B4B3"/>
    <trip type="typedist1" id="85" depart="85.00" from="C4C3" to="E1E0"/>
    <trip type="typedist1" id="86" depart="86.00" from="B1B2" to="E0E1"/>
    <trip type="typedist1" id="87" depart="87.00" from="B1C1" to="D1E1"/>
    <trip type="typedist1" id="88" depart="88.00" from="D1E1" to="E3E2"/>
    <trip type="typedist1" id="89" depart="89.00" from="B3B2" to="D0E0"/>
    <trip type="typedist1" id="90" depart="90.00" from="E4E3" to="D1C1"/>
    <trip type="typedist1" id="91" depart="91.00" from="B2C2" to="D1C1"/>
    <trip type="typedist1" id="92" depart="92.00" from="B2B3" to="D2D3"/>
    <trip type="typedist1" id="93" depart="93.00" from="E0D0" to="B2C2"/>
    <trip type="typedist1" id="94" depart="94.00" from="B3B2" to="D0C0"/>
    <trip type="typedist1" id="95" depart="95.00" from="E0E1" to="E1E2"/>
    <trip type="typedist1" id="96" depart="96.00" from="A0A1" to="B3C3"/>
    <trip type="typedist1" id="97" depart="97.00" from="D3C3" to="B3B2"/>
    <trip type="typedist1" id="98" depart="98.00" from="B4B3" to="D1D2"/>
    <trip type="typedist1" id="99" depart="99.00" from="B1A1" to="B3C3"/>
    <trip type="typedist1" id="100" depart="100.00" from="A2B2" to="D4D3"/>
    <trip type="typedist1" id="101" depart="101.00" from="D3E3" to="C2B2"/>
    <trip type="typedist1" id="102" depart="102.00" from="E1D1" to="E0E1"/>
    <trip type="typedist1" id="103" depart="103.00" from="B4C4" to="B4B3"/>
    <trip type="typedist1" id="104" depart="104.00" from="A3A4" to="D4E4"/>
    <trip type="typedist1" id="105" depart="105.00" from="A2A1" to="C1C2"/>
    <trip type="typedist1" id="106" depart="106.00" from="A3A2" to="A4A3"/>
    <trip type="typedist1" id="107" depart="107.00" from="A3B3" to="D1E1"/>
    <trip type="typedist1" id="108" depart="108.00" from="C2D2" to="E1D1"/>
    <trip type="typedist1" id="109" depart="109.00" from="E0E1" to="E4E3"/>
    <trip type="typedist1" id="110" depart="110.00" from="D1D2" to="C1B1"/>
    <trip type="typedist1" id="111" depart="111.00" from="E2E3" to="E3E4"/>
    <trip type="typedist1" id="112" depart="112.00" from="A2A3" to="C3C2"/>
    <trip type="typedist1" id="113" depart="113.00" from="D0E0" to="D4C4"/>
    <trip type="typedist1" id="114" depart="114.00" from="A3A2" to="E1E0"/>
    <trip type="typedist1" id="115" depart="115.00" from="D2E2" to="B3C3"/>
    <trip type="typedist1" id="116" depart="116.00" from="C2B2" to="C1C2"/>
    <trip type="typedist1" id="117" depart="117.00" from="E0E1" to="B2B3"/>
    <trip type="typedist1" id="118" depart="118.00" from="A2B2" to="B4B3"/>
    <trip type="typedist1" id="119" depart="119.00" from="D1E1" to="C3C4"/>
    <trip type="typedist1" id="120" depart="120.00" from="A1A0" to="B2B1"/>
    <trip type="typedist1" id="121" depart="121.00" from="C1C2" to="C2B2"/>
    <trip type="typedist1" id="122" depart="122.00" from="A3A2" to="C1D1"/>
    <trip type="typedist1" id="123" depart="123.00" from="B4A4" to="C1C2"/>
    <trip type="typedist1" id="124" depart="124.00" from="C1C2" to="C1C0"/>
    <trip type="typedist1" id="125" depart="125.00" from="A2A3" to="B4B3"/>
    <trip type="typedist1" id="126" depart="126.00" from="A0A1" to="A3A4"/>
    <trip type="typedist1" id="127" depart="127.00" from="A0B0" to="D4E4"/>
    <trip type="typedist1" id="128" depart="128.00" from="B3A3" to="E2E1"/>
    <trip type="typedist1" id="129" depart="129.00" from="D1D0" to="C2C1"/>
    <trip type="typedist1" id="130" depart="130.00" from="E0D0" to="A4B4"/>
    <trip type="typedist1" id="131" depart="131.00" from="C4C3" to="C0C1"/>
    <trip type="typedist1" id="132" depart="132.00" from="E1D1" to="E1E0"/>
    <trip type="typedist1" id="133" depart="133.00" from="B1A1" to="D3D2"/>
    <trip type="typedist1" id="134" depart="134.00" from="E4D4" to="C0D0"/>
    <trip type="typedist1" id="135" depart="135.00" from="C1C0" to="E0E1"/>
    <trip type="typedist1" id="136" depart="136.00" from="B4B3" to="C2C3"/>
    <trip type="typedist1" id="137" depart="137.00" from="D1D0" to="B4C4"/>
    <trip type="typedist1" id="138" depart="138.00" from="A1A0" to="D3D2"/>
    <trip type="typedist1" id="139" depart="139.00" from="B3A3" to="C3C4"/>
    <trip type="typedist1" id="140" depart="140.00" from="C0B0" to="E2D2"/>
    <trip type="typedist1" id="141" depart="141.00" from="C4B4" to="D1C1"/>
    <trip type="typedist1" id="142" depart="142.00" from="B3C3" to="C2C3"/>
    <trip type="typedist1" id="143" depart="143.00" from="C2C1" to="A0B0"/>
    <trip type="typedist1" id="144" depart="144.00" from="A1A0" to="C4C3"/>
    <trip type="typedist1" id="145" depart="145.00" from="A1A0" to="D1D0"/>
    <trip type="typedist1" id="146" depart="146.00" from="C1C2" to="A1A2"/>
    <trip type="typedist1" id="147" depart="147.00" from="E0D0" to="B2C2"/>
    <trip type="typedist1" id="148" depart="148.00" from="C0D0" to="D2D1"/>
    <trip type="typedist1" id="149" depart="149.00" from="D4E4" to="D0E0"/>
    <trip type="typedist1" id="150" depart="150.00" from="A3A4" to="B1C1"/>
    <trip type="typedist1" id="151" depart="151.00" from="E2E3" to="C0B0"/>
    <trip type="typedist1" id="152" depart="152.00" from="B1B2" to="C1B1"/>
    <trip type="typedist1" id="153" depart="153.00" from="B2C2" to="B3B4"/>
    <trip type="typedist1" id="154" depart="154.00" from="A3A2" to="E2E3"/>
    <trip type="typedist1" id="155" depart="155.00" from="B4C4" to="E3E4"/>
    <trip type="typedist1" id="156" depart="156.00" from="D1D2" to="B4B3"/>
    <trip type="typedist1" id="157" depart="157.00" from="C0D0" to="A1A2"/>
    <trip type="typedist1" id="158" depart="158.00" from="C0D0" to="D4D3"/>
    <trip type="typedist1" id="159" depart="159.00" from="C4D4" to="A1A2"/>
    <trip type="typedist1" id="160" depart="160.00" from="D0E0" to="A2A1"/>
    <trip type="typedist1" id="161" depart="161.00" from="C3C2" to="B3C3"/>
    <trip type="typedist1" id="162" depart="162.00" from="D1C1" to="A4A3"/>
    <trip type="typedist1" id="163" depart="163.00" from="C2C1" to="C3C2"/>
    <trip type="typedist1" id="164" depart="164.00" from="C2B2" to="C4D4"/>
    <trip type="typedist1" id="165" depart="165.00" from="B1B2" to="A1A2"/>
    <trip type="typedist1" id="166" depart="166.00" from="E4D4" to="A1A2"/>
    <trip type="typedist1" id="167" depart="167.00" from="D4C4" to="D2D3"/>
    <trip type="typedist1" id="168" depart="168.00" from="B0A0" to="D2E2"/>
    <trip type="typedist1" id="169" depart="169.00" from="C4B4" to="C3B3"/>
    <trip type="typedist1" id="170" depart="170.00" from="D1D0" to="A3A4"/>
    <trip type="typedist1" id="171" depart="171.00" from="D2D3" to="C0D0"/>
    <trip type="typedist1" id="172" depart="172.00" from="A0B0" to="B1B2"/>
    <trip type="typedist1" id="173" depart="173.00" from="B3C3" to="A0A1"/>
    <trip type="typedist1" id="174" depart="174.00" from="E1D1" to="D0D1"/>
    <trip type="typedist1" id="175" depart="175.00" from="D2D1" to="A0A1"/>
    <trip type="typedist1" id="176" depart="176.00" from="B0C0" to="D0D1"/>
    <trip type="typedist1" id="177" depart="177.00" from="D2C2" to="C4D4"/>
    <trip type="typedist1" id="178" depart="178.00" from="E1E2" to="C2B2"/>
    <trip type="typedist1" id="179" depart="179.00" from="D3E3" to="C3C4"/>
    <trip type="typedist1" id="180" depart="180.00" from="A1A0" to="D1D0"/>
    <trip type="typedist1" id="181" depart="181.00" from="B4B3" to="B2C2"/>
    <trip type="typedist1" id="182" depart="182.00" from="A4A3" to="B3B4"/>
    <trip type="typedist1" id="183" depart="183.00" from="C3C4" to="E0E1"/>
    <trip type="typedist1" id="184" depart="184.00" from="B0A0" to="C2D2"/>
    <trip type="typedist1" id="185" depart="185.00" from="A4A3" to="B2A2"/>
    <trip type="typedist1" id="186" depart="186.00" from="D1E1" to="D0D1"/>
    <trip type="typedist1" id="187" depart="187.00" from="C4D4" to="A1A2"/>
    <trip type="typedist1" id="188" depart="188.00" from="E4D4" to="A0B0"/>
    <trip type="typedist1" id="189" depart="189.00" from="B0C0" to="E0E1"/>
    <trip type="typedist1" id="190" depart="190.00" from="D0D1" to="E3E4"/>
    <trip type="typedist1" id="191" depart="191.00" from="C3B3" to="B3C3"/>
    <trip type="typedist1" id="192" depart="192.00" from="A0A1" to="C4B4"/>
    <trip type="typedist1" id="193" depart="193.00" from="B0A0" to="B0B1"/>
    <trip type="typedist1" id="194" depart="194.00" from="E0E1" to="C0B0"/>
    <trip type="typedist1" id="195" depart="195.00" from="C2C3" to="A1A0"/>
    <trip type="typedist1" id="196" depart="196.00" from="B3B2" to="D1D0"/>
    <trip type="typedist1" id="197" depart="197.00" from="B3B2" to="A1A0"/>
    <trip type="typedist1" id="198" depart="198.00" from="D2E2" to="B2B3"/>
    <trip type="typedist1" id="199" depart="199.00" from="C0D0" to="B1B0"/>
    <trip type="typedist1" id="200" depart="200.00" from="B4A4" to="D0E0"/>
    <trip type="typedist1" id="201" depart="201.00" from="C2C3" to="E4E3"/>
    <trip type="typedist1" id="202" depart="202.00" from="D2D1" to="D2D1"/>
    <trip type="typedist1" id="203" depart="203.00" from="E2E3" to="C4B4"/>
    <trip type="typedist1" id="204" depart="204.00" from="C1B1" to="B1C1"/>
    <trip type="typedist1" id="205" depart="205.00" from="B4C4" to="C1C2"/>
    <trip type="typedist1" id="206" depart="206.00" from="A0B0" to="A3A2"/>
    <trip type="typedist1" id="207" depart="207.00" from="B0B1" to="C2C1"/>
    <trip type="typedist1" id="208" depart="208.00" from="C1C0" to="A4B4"/>
    <trip type="typedist1" id="209" depart="209.00" from="D1E1" to="C0B0"/>
    <trip type="typedist1" id="210" depart="210.00" from="C3B3" to="E4E3"/>
    <trip type="typedist1" id="211" depart="211.00" from="E4E3" to="B0A0"/>
    <trip type="typedist1" id="212" depart="212.00" from="D3E3" to="A4B4"/>
    <trip type="typedist1" id="213" depart="213.00" from="E4D4" to="D1D0"/>
    <trip type="typedist1" id="214" depart="214.00" from="D0E0" to="C0C1"/>
    <trip type="typedist1" id="215" depart="215.00" from="A1B1" to="B1B0"/>
    <trip type="typedist1" id="216" depart="216.00" from="C2C1" to="E1E0"/>
    <trip type="typedist1" id="217" depart="217.00" from="D1D0" to="A1A2"/>
    <trip type="typedist1" id="218" depart="218.00" from="D2C2" to="D3D4"/>
    <trip type="typedist1" id="219" depart="219.00" from="A4A3" to="E3E2"/>
    <trip type="typedist1" id="220" depart="220.00" from="C4B4" to="A4A3"/>
    <trip type="typedist1" id="221" depart="221.00" from="D1C1" to="C1D1"/>
    <trip type="typedist1" id="222" depart="222.00" from="A2B2" to="A3B3"/>
    <trip type="typedist1" id="223" depart="223.00" from="D2D3" to="C3B3"/>
    <trip type="typedist1" id="224" depart="224.00" from="D2D1" to="E2E1"/>
    <trip type="typedist1" id="225" depart="225.00" from="A0A1" to="D3C3"/>
    <trip type="typedist1" id="226" depart="226.00" from="C3C2" to="E0D0"/>
    <trip type="typedist1" id="227" depart="227.00" from="C1C2" to="E4D4"/>
    <trip type="typedist1" id="228" depart="228.00" from="D3E3" to="D1C1"/>
    <trip type="typedist1" id="229" depart="229.00" from="D0D1" to="B1B0"/>
    <trip type="typedist1" id="230" depart="230.00" from="E3E2" to="D1C1"/>
    <trip type="typedist1" id="231" depart="231.00" from="A3B3" to="B4C4"/>
    <trip type="typedist1" id="232" depart="232.00" from="B2A2" to="C3D3"/>
    <trip type="typedist1" id="233" depart="233.00" from="A0B0" to="A4A3"/>
    <trip type="typedist1" id="234" depart="234.00" from="E1E0" to="B3A3"/>
    <trip type="typedist1" id="235" depart="235.00" from="D1C1" to="E1D1"/>
    <trip type="typedist1" id="236" depart="236.00" from="C4D4" to="E1E0"/>
    <trip type="typedist1" id="237" depart="237.00" from="C4D4" to="B0C0"/>
    <trip type="typedist1" id="238" depart="238.00" from="D0E0" to="A4A3"/>
    <trip type="typedist1" id="239" depart="239.00" from="A1A2" to="D2C2"/>
    <trip type="typedist1" id="240" depart="240.00" from="B4B3" to="D0C0"/>
    <trip type="typedist1" id="241" depart="241.00" from="B1B2" to="C2C1"/>
    <trip type="typedist1" id="242" depart="242.00" from="C1D1" to="E1D1"/>
    <trip type="typedist1" id="243" depart="243.00" from="E0E1" to="A4A3"/>
    <trip type="typedist1" id="244" depart="244.00" from="E1E2" to="C4B4"/>
    <trip type="typedist1" id="245" depart="245.00" from="C4B4" to="C4B4"/>
    <trip type="typedist1" id="246" depart="246.00" from="B2A2" to="B4A4"/>
    <trip type="typedist1" id="247" depart="247.00" from="E2E3" to="D2D1"/>
    <trip type="typedist1" id="248" depart="248.00" from="C0C1" to="C2C1"/>
    <trip type="typedist1" id="249" depart="249.00" from="B1A1" to="D2E2"/>
    <trip type="typedist1" id="250" depart="250.00" from="B1C1" to="B2C2"/>
    <trip type="typedist1" id="251" depart="251.00" from="D2C2" to="C0C1"/>
    <trip type="typedist1" id="252" depart="252.00" from="A1A0" to="C2C1"/>
    <trip type="typedist1" id="253" depart="253.00" from="A2A3" to="E1E0"/>
    <trip type="typedist1" id="254" depart="254.00" from="D1D0" to="D0D1"/>
    <trip type="typedist1" id="255" depart="255.00" from="C2B2" to="A3A2"/>
    <trip type="typedist1" id="256" depart="256.00" from="B3A3" to="A1A0"/>
    <trip type="typedist1" id="257" depart="257.00" from="D1D2" to="A1B1"/>
    <trip type="typedist1" id="258" depart="258.00" from="B3B2" to="C4B4"/>
    <trip type="typedist1" id="259" depart="259.00" from="D3D4" to="A3A2"/>
    <trip type="typedist1" id="260" depart="260.00" from="D4E4" to="D1C1"/>
    <trip type="typedist1" id="261" depart="261.00" from="B0A0" to="B1B2"/>
    <trip type="typedist1" id="262" depart="262.00" from="A0B0" to="C3C2"/>
    <trip type="typedist1" id="263" depart="263.00" from="D3D4" to="A2B2"/>
    <trip type="typedist1" id="264" depart="264.00" from="B3C3" to="C1C2"/>
    <trip type="typedist1" id="265" depart="265.00" from="B0B1" to="B4B3"/>
    <trip type="typedist1" id="266" depart="266.00" from="B2B1" to="D3E3"/>
    <trip type="typedist1" id="267" depart="267.00" from="D1C1" to="E1D1"/>
    <trip type="typedist1" id="268" depart="268.00" from="B2B3" to="C3D3"/>
    <trip type="typedist1" id="269" depart="269.00" from="D1C1" to="A2B2"/>
    <trip type="typedist1" id="270" depart="270.00" from="A4B4" to="A1A2"/>
    <trip type="typedist1" id="271" depart="271.00" from="B4C4" to="C2B2"/>
    <trip type="typedist1" id="272" depart="272.00" from="D2D1" to="D0E0"/>
    <trip type="typedist1" id="273" depart="273.00" from="B4B3" to="C1B1"/>
    <trip type="typedist1" id="274" depart="274.00" from="D4E4" to="B0A0"/>
    <trip type="typedist1" id="275" depart="275.00" from="B0B1" to="B3A3"/>
    <trip type="typedist1" id="276" depart="276.00" from="E3E4" to="C4D4"/>
    <trip type="typedist1" id="277" depart="277.00" from="D2C2" to="C0C1"/>
    <trip type="typedist1" id="278" depart="278.00" from="D3E3" to="E3E2"/>
    <trip type="typedist1" id="279" depart="279.00" from="D2D3" to="D3C3"/>
    <trip type="typedist1" id="280" depart="280.00" from="B1A1" to="B3B2"/>
    <trip type="typedist1" id="281" depart="281.00" from="D2E2" to="D3E3"/>
    <trip type="typedist1" id="282" depart="282.00" from="E3E2" to="C2B2"/>
    <trip type="typedist1" id="283" depart="283.00" from="B2C2" to="E3E4"/>
    <trip type="typedist1" id="284" depart="284.00" from="D4D3" to="B3A3"/>
    <trip type="typedist1" id="285" depart="285.00" from="B0B1" to="E0E1"/>
    <trip type="typedist1" id="286" depart="286.00" from="D3C3" to="A0B0"/>
    <trip type="typedist1" id="287" depart="287.00" from="C0C1" to="B0A0"/>
    <trip type="typedist1" id="288" depart="288.00" from="A3B3" to="D2C2"/>
    <trip type="typedist1" id="289" depart="289.00" from="A1A2" to="B0B1"/>
    <trip type="typedist1" id="290" depart="290.00" from="C2D2" to="A2B2"/>
    <trip type="typedist1" id="291" depart="291.00" from="B2B1" to="E2D2"/>
    <trip type="typedist1" id="292" depart="292.00" from="D1E1" to="A2A1"/>
    <trip type="typedist1" id="293" depart="293.00" from="B3B2" to="C4D4"/>
    <trip type="typedist1" id="294" depart="294.00" from="D2D3" to="D1D0"/>
    <trip type="typedist1" id="295" depart="295.00" from="C4B4" to="B1A1"/>
    <trip type="typedist1" id="296" depart="296.00" from="E0D0" to="D0E0"/>
    <trip type="typedist1" id="297" depart="297.00" from="E2E1" to="A3A4"/>
    <trip type="typedist1" id="298" depart="298.00" from="C2B2" to="A1A0"/>
    <trip type="typedist1" id="299" depart="299.00" from="E0D0" to="A0B0"/>
    <trip type="typedist1" id="300" depart="300.00" from="A2B2" to="D1D0"/>
    <trip type="typedist1" id="301" depart="301.00" from="A3B3" to="D1C1"/>
    <trip type="typedist1" id="302" depart="302.00" from="D1D0" to="C0C1"/>
    <trip type="typedist1" id="303" depart="303.00" from="B4C4" to="D0C0"/>
    <trip type="typedist1" id="304" depart="304.00" from="C3C2" to="D1D2"/>
    <trip type="typedist1" id="305" depart="305.00" from="E1E2" to="A4A3"/>
    <trip type="typedist1" id="306" depart="306.00" from="B3B2" to="D1D2"/>
    <trip type="typedist1" id="307" depart="307.00" from="C3C4" to="D2D3"/>
    <trip type="typedist1" id="308" depart="308.00" from="A3A2" to="C3D3"/>
    <trip type="typedist1" id="309" depart="309.00" from="C4C3" to="C1C2"/>
    <trip type="typedist1" id="310" depart="310.00" from="B3C3" to="A0B0"/>
    <trip type="typedist1" id="311" depart="311.00" from="E4E3" to="C4D4"/>
    <trip type="typedist1" id="312" depart="312.00" from="C4B4" to="D4D3"/>
    <trip type="typedist1" id="313" depart="313.00" from="A1A0" to="B0A0"/>
    <trip type="typedist1" id="314" depart="314.00" from="C4D4" to="E3E2"/>
    <trip type="typedist1" id="315" depart="315.00" from="C2B2" to="E2E3"/>
    <trip type="typedist1" id="316" depart="316.00" from="C0D0" to="E3D3"/>
    <trip type="typedist1" id="317" depart="317.00" from="D4D3" to="C2C1"/>
    <trip type="typedist1" id="318" depart="318.00" from="C0B0" to="C2C3"/>
    <trip type="typedist1" id="319" depart="319.00" from="A0A1" to="D0E0"/>
    <trip type="typedist1" id="320" depart="320.00" from="A2B2" to="A2A1"/>
    <trip type="typedist1" id="321" depart="321.00" from="B3B4" to="A2B2"/>
    <trip type="typedist1" id="322" depart="322.00" from="B4C4" to="C4D4"/>
    <trip type="typedist1" id="323" depart="323.00" from="D2E2" to="C2C1"/>
    <trip type="typedist1" id="324" depart="324.00" from="D3D4" to="B1B0"/>
    <trip type="typedist1" id="325" depart="325.00" from="E1E2" to="D0D1"/>
    <trip type="typedist1" id="326" depart="326.00" from="E0E1" to="A0A1"/>
    <trip type="typedist1" id="327" depart="327.00" from="E2D2" to="C2D2"/>
    <trip type="typedist1" id="328" depart="328.00" from="A4B4" to="E4E3"/>
    <trip type="typedist1" id="329" depart="329.00" from="C1D1" to="D2E2"/>
    <trip type="typedist1" id="330" depart="330.00" from="B4A4" to="D0E0"/>
    <trip type="typedist1" id="331" depart="331.00" from="D3D4" to="D0C0"/>
    <trip type="typedist1" id="332" depart="332.00" from="D1C1" to="B4B3"/>
    <trip type="typedist1" id="333" depart="333.00" from="D2E2" to="E2E1"/>
    <trip type="typedist1" id="334" depart="334.00" from="D4D3" to="D3D4"/>
    <trip type="typedist1" id="335" depart="335.00" from="B4C4" to="D1D0"/>
    <trip type="typedist1" id="336" depart="336.00" from="C2C1" to="D3D2"/>
    <trip type="typedist1" id="337" depart="337.00" from="D3C3" to="C1C0"/>
    <trip type="typedist1" id="338" depart="338.00" from="A1A0" to="A3B3"/>
    <trip type="typedist1" id="339" depart="339.00" from="C3D3" to="C1D1"/>
    <trip type="typedist1" id="340" depart="340.00" from="A1B1" to="E1E2"/>
    <trip type="typedist1" id="341" depart="341.00" from="A2B2" to="A3A4"/>
    <trip type="typedist1" id="342" depart="342.00" from="E1D1" to="D1D2"/>
    <trip type="typedist1" id="343" depart="343.00" from="B0B1" to="A2A3"/>
    <trip type="typedist1" id="344" depart="344.00" from="C2B2" to="A2B2"/>
    <trip type="typedist1" id="345" depart="345.00" from="E3D3" to="E0D0"/>
    <trip type="typedist1" id="346" depart="346.00" from="C2C1" to="D0D1"/>
    <trip type="typedist1" id="347" depart="347.00" from="E2E3" to="D1C1"/>
    <trip type="typedist1" id="348" depart="348.00" from="B3B4" to="E0E1"/>
    <trip type="typedist1" id="349" depart="349.00" from="A4B4" to="C3C2"/>
    <trip type="typedist1" id="350" depart="350.00" from="E3E4" to="C0B0"/>
    <trip type="typedist1" id="351" depart="351.00" from="B4C4" to="B1B2"/>
    <trip type="typedist1" id="352" depart="352.00" from="C2C1" to="E4E3"/>
    <trip type="typedist1" id="353" depart="353.00" from="E3E2" to="B1C1"/>
    <trip type="typedist1" id="354" depart="354.00" from="C4D4" to="A1A0"/>
    <trip type="typedist1" id="355" depart="355.00" from="C0C1" to="A2A1"/>
    <trip type="typedist1" id="356" depart="356.00" from="B3B4" to="D3E3"/>
    <trip type="typedist1" id="357" depart="357.00" from="E4E3" to="B1C1"/>
    <trip type="typedist1" id="358" depart="358.00" from="D4C4" to="D2C2"/>
    <trip type="typedist1" id="359" depart="359.00" from="D1C1" to="D3D2"/>
    <trip type="typedist1" id="360" depart="360.00" from="A0B0" to="A3A4"/>
    <trip type="typedist1" id="361" depart="361.00" from="C3C2" to="B2C2"/>
    <trip type="typedist1" id="362" depart="362.00" from="D1E1" to="C1B1"/>
    <trip type="typedist1" id="363" depart="363.00" from="B3B2" to="B1A1"/>
    <trip type="typedist1" id="364" depart="364.00" from="C0B0" to="D3D4"/>
    <trip type="typedist1" id="365" depart="365.00" from="B2C2" to="E3D3"/>
    <trip type="typedist1" id="366" depart="366.00" from="D1E1" to="A0B0"/>
    <trip type="typedist1" id="367" depart="367.00" from="A3B3" to="D1D0"/>
    <trip type="typedist1" id="368" depart="368.00" from="B2B3" to="C1C2"/>
    <trip type="typedist1" id="369" depart="369.00" from="C2D2" to="B3A3"/>
    <trip type="typedist1" id="370" depart="370.00" from="C2C1" to="C3B3"/>
    <trip type="typedist1" id="371" depart="371.00" from="D0C0" to="B2B1"/>
    <trip type="typedist1" id="372" depart="372.00" from="A1A0" to="B3B4"/>
    <trip type="typedist1" id="373" depart="373.00" from="C0D0" to="A3B3"/>
    <trip type="typedist1" id="374" depart="374.00" from="C0B0" to="D3E3"/>
    <trip type="typedist1" id="375" depart="375.00" from="B0C0" to="B3A3"/>
    <trip type="typedist1" id="376" depart="376.00" from="E3E4" to="D4C4"/>
    <trip type="typedist1" id="377" depart="377.00" from="D3C3" to="C0C1"/>
    <trip type="typedist1" id="378" depart="378.00" from="B4A4" to="A3B3"/>
    <trip type="typedist1" id="379" depart="379.00" from="E3E2" to="E3E2"/>
    <trip type="typedist1" id="380" depart="380.00" from="E1E0" to="C3C2"/>
    <trip type="typedist1" id="381" depart="381.00" from="C0D0" to="C1D1"/>
    <trip type="typedist1" id="382" depart="382.00" from="D0E0" to="B2B3"/>
    <trip type="typedist1" id="383" depart="383.00" from="C0C1" to="A2A1"/>
    <trip type="typedist1" id="384" depart="384.00" from="B2B1" to="B3B4"/>
    <trip type="typedist1" id="385" depart="385.00" from="D3E3" to="C0D0"/>